@<TRIPOS>MOLECULE
metal_large_resp
   95   102     1     0     0
SMALL
USER_CHARGES


@<TRIPOS>ATOM
      1 CMA     -6.7337    0.5103   35.2138 c         1 ACE     -0.231464
      2 CAC     -6.3235   -0.1379   33.9104 c         1 ACE      0.489308
      3 OAC     -6.1394   -1.3353   33.7994 o         1 ACE     -0.459916
      4 H1A     -7.5099    1.2632   35.0723 h         1 ACE      0.067357
      5 H2A     -5.8660    0.9956   35.6643 h         1 ACE      0.067357
      6 H3A     -7.0945   -0.2604   35.8880 h         1 ACE      0.067357
      7 N       -6.1280    0.7270   32.8778 N         1 CYM     -0.415700
      8 CA      -5.8030    0.2871   31.5319 CX        1 CYM     -0.035100
      9 C       -4.6414   -0.7154   31.5480 C         1 CYM      0.597300
     10 O       -3.5267   -0.3952   31.9284 O         1 CYM     -0.567900
     11 CB      -5.4039    1.5111   30.7140 CT        1 CYM     -0.025042
     12 SG      -5.2416    1.1563   28.9355 SH        1 CYM     -0.328133
     13 H       -6.4738    1.6672   32.9794 H         1 CYM      0.265724
     14 HA      -6.6699   -0.1888   31.0699 H1        1 CYM      0.090618
     15 HB3     -6.1365    2.3081   30.8635 H1        1 CYM      0.059395
     16 HB2     -4.4325    1.8578   31.0691 H1        1 CYM      0.059395
     17 NNM     -4.9369   -1.9295   31.0459 n         1 NME     -0.281847
     18 CNM     -3.9648   -2.9976   31.1179 c         1 NME     -0.188337
     19 HNM     -5.9111   -2.1851   30.9901 h         1 NME      0.200758
     20 H1M     -3.7009   -3.2273   32.1530 h         1 NME      0.089809
     21 H2M     -4.3883   -3.8867   30.6556 h         1 NME      0.089809
     22 H3M     -3.0575   -2.7068   30.5880 h         1 NME      0.089809
     23 CAA    -10.2870    1.6588   33.1651 c3        1 HEM     -0.138877
     24 CAB     -6.8492    5.2230   24.6259 ce        1 HEM     -0.111077
     25 CAC     -5.9524   -2.5803   24.1543 ce        1 HEM     -0.124700
     26 CAD     -9.1326   -3.4568   31.4255 c3        1 HEM     -0.075951
     27 NA      -8.6569    1.7281   29.7686 nc        1 HEM     -0.120826
     28 CBA    -11.8020    1.9333   33.2289 c3        1 HEM     -0.002774
     29 CBB     -6.3203    6.4427   24.5538 c2        1 HEM     -0.367769
     30 CBC     -5.2258   -3.5226   24.7473 c2        1 HEM     -0.342348
     31 CBD     -7.9531   -4.1269   32.1557 c3        1 HEM      0.009249
     32 NB      -7.7814    2.7937   27.2474 nd        1 HEM     -0.195708
     33 CGA    -12.2041    3.2287   34.0099 c         1 HEM      0.666600
     34 CGD     -8.3787   -5.4702   32.8083 c         1 HEM      0.628344
     35 ND      -8.1473   -0.8808   28.8525 nc        1 HEM     -0.163485
     36 CHA     -9.1714   -0.3103   30.9946 cf        1 HEM     -0.100337
     37 CHB     -8.5694    4.0920   29.1633 ce        1 HEM     -0.107701
     38 CHC     -6.9175    2.1923   25.0543 ce        1 HEM     -0.127122
     39 CHD     -7.2236   -2.2049   27.0126 ce        1 HEM     -0.118210
     40 CMA     -9.8477    4.5846   31.8809 c3        1 HEM     -0.159902
     41 CMB     -8.0703    6.5064   27.3530 c3        1 HEM     -0.148411
     42 CMC     -5.8932    0.2983   22.8650 c3        1 HEM     -0.177005
     43 CMD     -7.8745   -4.6199   28.8180 c3        1 HEM     -0.270735
     44 C1A     -9.1560    1.0672   30.8570 cc        1 HEM     -0.003451
     45 C1B     -8.0669    3.9689   27.8648 cd        1 HEM      0.011293
     46 C1C     -6.8566    0.8217   25.2190 cd        1 HEM      0.003826
     47 C1D     -7.7897   -2.0682   28.2561 cc        1 HEM     -0.071878
     48 O1A    -13.3925    3.5729   33.8663 o         1 HEM     -0.709571
     49 O1D     -7.5698   -6.4161   32.6788 o         1 HEM     -0.714156
     50 C2A     -9.6628    2.0130   31.8509 cc        1 HEM     -0.010738
     51 C2B     -7.8010    5.0815   26.9977 cd        1 HEM      0.058575
     52 C2C     -6.3876   -0.0931   24.2191 cd        1 HEM      0.040955
     53 C2D     -8.1157   -3.1786   29.1229 cc        1 HEM      0.136995
     54 O2A    -11.3106    3.7702   34.7033 o         1 HEM     -0.700741
     55 O2D     -9.4946   -5.4568   33.3714 o         1 HEM     -0.699297
     56 C3A     -9.4765    3.2509   31.3218 cd        1 HEM      0.054564
     57 C3B     -7.3191    4.5485   25.8293 cc        1 HEM     -0.019581
     58 C3C     -6.4148   -1.3385   24.7825 cc        1 HEM     -0.036437
     59 C3D     -8.6758   -2.6609   30.2467 cd        1 HEM     -0.060813
     60 C4A     -8.8639    3.0655   30.0217 cd        1 HEM     -0.013233
     61 C4B     -7.3323    3.1167   25.9993 cc        1 HEM     -0.009268
     62 C4C     -6.9403   -1.1703   26.1196 cc        1 HEM      0.020224
     63 C4D     -8.6903   -1.2151   30.0611 cd        1 HEM      0.007566
     64 NC      -7.1897    0.1417   26.3638 nd        1 HEM     -0.105670
     65 HAA1    -9.8505    2.2824   33.9534 hc        1 HEM      0.061964
     66 HAA2   -10.0697    0.6157   33.4092 hc        1 HEM      0.061964
     67 HAB     -6.9153    4.6528   23.7044 ha        1 HEM      0.120883
     68 HAC     -6.2022   -2.7094   23.1035 ha        1 HEM      0.122799
     69 HAD1    -9.8050   -4.2447   31.0767 hc        1 HEM      0.043656
     70 HAD2    -9.7256   -2.8678   32.1233 hc        1 HEM      0.043656
     71 HBA1   -12.3126    1.1021   33.7229 hc        1 HEM     -0.015682
     72 HBA2   -12.2362    2.0011   32.2304 hc        1 HEM     -0.015682
     73 HBB1    -6.0053    6.8520   23.6035 ha        1 HEM      0.139445
     74 HBB2    -6.1641    7.0577   25.4293 ha        1 HEM      0.139445
     75 HBC1    -4.9133   -4.4085   24.2091 ha        1 HEM      0.146074
     76 HBC2    -4.9096   -3.4297   25.7787 ha        1 HEM      0.146074
     77 HBD1    -7.5579   -3.4577   32.9247 hc        1 HEM     -0.000799
     78 HBD2    -7.1369   -4.3308   31.4584 hc        1 HEM     -0.000799
     79 HHA     -9.5718   -0.7209   31.9105 ha        1 HEM      0.144957
     80 HHB     -8.7779    5.0912   29.5205 ha        1 HEM      0.104631
     81 HHC     -6.5973    2.5719   24.0942 ha        1 HEM      0.117479
     82 HHD     -7.0133   -3.2122   26.6838 ha        1 HEM      0.122150
     83 HMA1   -10.1734    4.5089   32.9189 hc        1 HEM      0.056826
     84 HMA2   -10.6704    5.0199   31.3051 hc        1 HEM      0.056826
     85 HMA3    -9.0020    5.2756   31.8172 hc        1 HEM      0.056826
     86 HMB1    -9.0407    6.6080   27.8407 hc        1 HEM      0.051634
     87 HMB2    -8.0740    7.1402   26.4688 hc        1 HEM      0.051634
     88 HMB3    -7.3193    6.8960   28.0448 hc        1 HEM      0.051634
     89 HMC1    -5.3993   -0.5353   22.3680 hc        1 HEM      0.055994
     90 HMC2    -5.1692    1.1123   22.9371 hc        1 HEM      0.055994
     91 HMC3    -6.7053    0.6443   22.2210 hc        1 HEM      0.055994
     92 HMD1    -8.3388   -5.2570   29.5699 hc        1 HEM      0.084168
     93 HMD2    -6.8062   -4.8550   28.8150 hc        1 HEM      0.084168
     94 HMD3    -8.2770   -4.8865   27.8377 hc        1 HEM      0.084168
     95 FE      -7.4445    0.9763   28.2633 fe        1 FE       0.440945
@<TRIPOS>BOND
     1    1    2 1
     2    1    4 1
     3    1    5 1
     4    1    6 1
     5    2    3 1
     6    2    7 1
     7    7    8 1
     8    7   13 1
     9    8    9 1
    10    8   11 1
    11    8   14 1
    12    9   10 1
    13    9   17 1
    14   11   12 1
    15   11   15 1
    16   11   16 1
    17   12   95 1
    18   17   18 1
    19   17   19 1
    20   18   20 1
    21   18   21 1
    22   18   22 1
    23   23   28 1
    24   23   50 1
    25   23   65 1
    26   23   66 1
    27   24   29 1
    28   24   57 1
    29   24   67 1
    30   25   30 1
    31   25   58 1
    32   25   68 1
    33   26   31 1
    34   26   59 1
    35   26   69 1
    36   26   70 1
    37   27   44 1
    38   27   60 1
    39   27   95 1
    40   28   33 1
    41   28   71 1
    42   28   72 1
    43   29   73 1
    44   29   74 1
    45   30   75 1
    46   30   76 1
    47   31   34 1
    48   31   77 1
    49   31   78 1
    50   32   45 1
    51   32   61 1
    52   32   95 1
    53   33   48 1
    54   33   54 1
    55   34   49 1
    56   34   55 1
    57   35   47 1
    58   35   63 1
    59   35   95 1
    60   36   44 1
    61   36   63 1
    62   36   79 1
    63   37   45 1
    64   37   60 1
    65   37   80 1
    66   38   46 1
    67   38   61 1
    68   38   81 1
    69   39   47 1
    70   39   62 1
    71   39   82 1
    72   40   56 1
    73   40   83 1
    74   40   84 1
    75   40   85 1
    76   41   51 1
    77   41   86 1
    78   41   87 1
    79   41   88 1
    80   42   52 1
    81   42   89 1
    82   42   90 1
    83   42   91 1
    84   43   53 1
    85   43   92 1
    86   43   93 1
    87   43   94 1
    88   44   50 1
    89   45   51 1
    90   46   52 1
    91   46   64 1
    92   47   53 1
    93   50   56 1
    94   51   57 1
    95   52   58 1
    96   53   59 1
    97   56   60 1
    98   57   61 1
    99   58   62 1
   100   59   63 1
   101   62   64 1
   102   64   95 1
@<TRIPOS>SUBSTRUCTURE
     1 metal_large_resp        1 TEMP              0 ****  ****    0 ROOT
