@<TRIPOS>MOLECULE
TOLUENE
   15    15     1     0     0
SMALL
abcg2


@<TRIPOS>ATOM
      1 C7           0.0000     1.5200     0.0000 c3         1 TOL      -0.053800
      2 C1           0.0000     0.0000     0.0000 ca         1 TOL      -0.077300
      3 C2           1.2090    -0.6980     0.0000 ca         1 TOL      -0.113000
      4 C3           1.2090    -2.0920     0.0000 ca         1 TOL      -0.108500
      5 C4           0.0000    -2.7900     0.0000 ca         1 TOL      -0.117000
      6 C5          -1.2090    -2.0920     0.0000 ca         1 TOL      -0.108500
      7 C6          -1.2090    -0.6980     0.0000 ca         1 TOL      -0.113000
      8 H71          1.0270     1.8830     0.0000 hc         1 TOL       0.043367
      9 H72         -0.5130     1.8830     0.8890 hc         1 TOL       0.043367
     10 H73         -0.5130     1.8830    -0.8890 hc         1 TOL       0.043367
     11 H2           2.1470    -0.1560     0.0000 ha         1 TOL       0.112000
     12 H3           2.1470    -2.6340     0.0000 ha         1 TOL       0.112000
     13 H4           0.0000    -3.8730     0.0000 ha         1 TOL       0.112000
     14 H5          -2.1470    -2.6340     0.0000 ha         1 TOL       0.112000
     15 H6          -2.1470    -0.1560     0.0000 ha         1 TOL       0.112000
@<TRIPOS>BOND
     1     1     2 1   
     2     1     8 1   
     3     1     9 1   
     4     1    10 1   
     5     2     3 ar  
     6     3     4 ar  
     7     4     5 ar  
     8     5     6 ar  
     9     6     7 ar  
    10     7     2 ar  
    11     3    11 1   
    12     4    12 1   
    13     5    13 1   
    14     6    14 1   
    15     7    15 1   
@<TRIPOS>SUBSTRUCTURE
     1 TOL         1 TEMP              0 ****  ****    0 ROOT
