@<TRIPOS>MOLECULE
HEM461
   72    76     1     0     0
SMALL
abcg2


@<TRIPOS>ATOM
      1 CAA        -10.2720     1.6890    33.2100 c3         1 HEM4     -0.018200
      2 CAB         -6.4620     5.2020    24.6780 ce         1 HEM4     -0.063000
      3 CAC         -5.6640    -2.5280    24.0850 ce         1 HEM4     -0.055000
      4 CAD         -9.4730    -3.3430    31.5400 c3         1 HEM4     -0.013200
      5 NA          -8.7590     1.7760    29.7370 nc         1 HEM4     -0.168000
      6 CBA        -11.7690     1.4250    33.1010 c3         1 HEM4     -0.173400
      7 CBB         -6.1120     6.4900    24.6060 c2         1 HEM4     -0.451000
      8 CBC         -5.8300    -3.7640    24.5300 c2         1 HEM4     -0.461000
      9 CBD         -8.2700    -3.8530    32.3340 c3         1 HEM4     -0.175400
     10 NB          -7.7070     2.8170    27.3180 nd         1 HEM4     -0.092000
     11 CGA        -12.4320     1.4980    34.4530 c          1 HEM4      0.691000
     12 CGD         -8.6830    -4.2760    33.7200 c          1 HEM4      0.690000
     13 ND          -8.2480    -1.0010    28.8150 nc         1 HEM4     -0.038000
     14 CHA         -9.0610    -0.2850    31.0490 cf         1 HEM4     -0.304600
     15 CHB         -8.7960     4.1460    29.0620 ce         1 HEM4     -0.480600
     16 CHC         -6.5140     2.2100    25.2690 ce         1 HEM4     -0.183600
     17 CHD         -7.5560    -2.2780    26.8190 ce         1 HEM4     -0.141600
     18 CMA        -10.1010     4.5580    31.9240 c3         1 HEM4     -0.020900
     19 CMB         -8.0270     6.5900    27.2360 c3         1 HEM4     -0.021900
     20 CMC         -5.1000     0.3080    23.2200 c3         1 HEM4      0.018100
     21 CMD         -8.4690    -4.8040    28.6400 c3         1 HEM4     -0.031900
     22 C1A         -9.1600     1.0750    30.8620 cc         1 HEM4      0.019000
     23 C1B         -8.1270     4.0160    27.8650 cd         1 HEM4      0.039000
     24 C1C         -6.5780     0.8430    25.3700 cd         1 HEM4     -0.128000
     25 C1D         -8.0580    -2.1880    28.1080 cc         1 HEM4     -0.093000
     26 O1A        -13.6650     1.2580    34.5320 o          1 HEM4     -0.777500
     27 O1D         -8.2760    -5.3860    34.1590 o          1 HEM4     -0.776500
     28 C2A         -9.7050     2.0250    31.8140 cc         1 HEM4     -0.110200
     29 C2B         -7.7320     5.0950    26.9750 cd         1 HEM4     -0.108200
     30 C2C         -5.9460    -0.0720    24.4550 cd         1 HEM4     -0.202200
     31 C2D         -8.4720    -3.2930    28.9590 cc         1 HEM4     -0.160200
     32 O2A        -11.7340     1.7980    35.4550 o          1 HEM4     -0.777500
     33 O2D         -9.4290    -3.5060    34.3790 o          1 HEM4     -0.776500
     34 C3A         -9.6310     3.2440    31.2680 cd         1 HEM4     -0.178200
     35 C3B         -7.1090     4.5430    25.9200 cc         1 HEM4     -0.174000
     36 C3C         -6.2070    -1.3100    24.8560 cc         1 HEM4     -0.206000
     37 C3D         -8.9400    -2.6480    30.2710 cd         1 HEM4     -0.119200
     38 C4A         -9.0360     3.1170    29.9500 cd         1 HEM4      0.163600
     39 C4B         -7.0750     3.1140    26.1310 cc         1 HEM4      0.020600
     40 C4C         -7.0350    -1.2400    26.0600 cc         1 HEM4     -0.023400
     41 C4D         -8.7620    -1.2300    30.0910 cd         1 HEM4      0.075600
     42 NC          -7.2360     0.1030    26.3370 nd         1 HEM4     -0.015000
     43 HAA1       -10.1070     2.4230    33.8220 hc         1 HEM4      0.046200
     44 HAA2        -9.8220     0.9100    33.5730 hc         1 HEM4      0.046200
     45 HAB         -6.3000     4.6440    23.9010 ha         1 HEM4      0.149000
     46 HAC         -5.1880    -2.3860    23.2520 ha         1 HEM4      0.107000
     47 HAD1       -10.0610    -4.0780    31.3040 hc         1 HEM4      0.044700
     48 HAD2        -9.9940    -2.7230    32.0740 hc         1 HEM4      0.044700
     49 HBA1       -11.9190     0.5500    32.7110 hc         1 HEM4      0.026700
     50 HBA2       -12.1720     2.0740    32.5040 hc         1 HEM4      0.026700
     51 HBB1        -5.7100     6.8390    23.7950 ha         1 HEM4      0.129500
     52 HBB2        -6.2600     7.0760    25.3650 ha         1 HEM4      0.129500
     53 HBC1        -5.4780    -4.5130    24.0240 ha         1 HEM4      0.135500
     54 HBC2        -6.3040    -3.9200    25.3620 ha         1 HEM4      0.135500
     55 HBD1        -7.5960    -3.1570    32.3910 hc         1 HEM4      0.026700
     56 HBD2        -7.8650    -4.6020    31.8700 hc         1 HEM4      0.026700
     57 HHA         -9.2110    -0.5990    31.9110 ha         1 HEM4      0.159000
     58 HHB         -9.1100     4.9910    29.2890 ha         1 HEM4      0.127000
     59 HHC         -6.0440     2.5560    24.5450 ha         1 HEM4      0.115000
     60 HHD         -7.5700    -3.1190    26.4230 ha         1 HEM4      0.142000
     61 HMA1       -10.8410     4.3740    32.5230 hc         1 HEM4      0.021700
     62 HMA2       -10.3890     5.1780    31.2360 hc         1 HEM4      0.021700
     63 HMA3        -9.3690     4.9490    32.4260 hc         1 HEM4      0.021700
     64 HMB1        -8.8490     6.6740    27.7450 hc         1 HEM4      0.017700
     65 HMB2        -8.1220     7.0540    26.3890 hc         1 HEM4      0.017700
     66 HMB3        -7.2950     6.9820    27.7380 hc         1 HEM4      0.017700
     67 HMC1        -4.4330    -0.3780    23.0610 hc         1 HEM4     -0.007967
     68 HMC2        -4.6580     1.1570    23.3790 hc         1 HEM4     -0.007967
     69 HMC3        -5.6770     0.3840    22.4440 hc         1 HEM4     -0.007967
     70 HMD1        -8.3320    -5.3070    29.4580 hc         1 HEM4      0.029700
     71 HMD2        -7.7540    -5.0020    28.0150 hc         1 HEM4      0.029700
     72 HMD3        -9.3200    -5.0530    28.2460 hc         1 HEM4      0.029700
@<TRIPOS>BOND
     1     1     6 1   
     2     1    28 1   
     3     1    43 1   
     4     1    44 1   
     5     2     7 2   
     6     2    35 1   
     7     2    45 1   
     8     3     8 2   
     9     3    36 1   
    10     3    46 1   
    11     4     9 1   
    12     4    37 1   
    13     4    47 1   
    14     4    48 1   
    15     5    22 1   
    16     5    38 2   
    17     6    11 1   
    18     6    49 1   
    19     6    50 1   
    20     7    51 1   
    21     7    52 1   
    22     8    53 1   
    23     8    54 1   
    24     9    12 1   
    25     9    55 1   
    26     9    56 1   
    27    10    23 1   
    28    10    39 2   
    29    11    26 1   
    30    11    32 1   
    31    12    27 1   
    32    12    33 1   
    33    13    25 1   
    34    13    41 2   
    35    14    22 2   
    36    14    41 1   
    37    14    57 1   
    38    15    23 2   
    39    15    38 1   
    40    15    58 1   
    41    16    24 2   
    42    16    39 1   
    43    16    59 1   
    44    17    25 2   
    45    17    40 1   
    46    17    60 1   
    47    18    34 1   
    48    18    61 1   
    49    18    62 1   
    50    18    63 1   
    51    19    29 1   
    52    19    64 1   
    53    19    65 1   
    54    19    66 1   
    55    20    30 1   
    56    20    67 1   
    57    20    68 1   
    58    20    69 1   
    59    21    31 1   
    60    21    70 1   
    61    21    71 1   
    62    21    72 1   
    63    22    28 1   
    64    23    29 1   
    65    24    30 1   
    66    24    42 1   
    67    25    31 1   
    68    28    34 2   
    69    29    35 2   
    70    30    36 2   
    71    31    37 2   
    72    34    38 1   
    73    35    39 1   
    74    36    40 1   
    75    37    41 1   
    76    40    42 2   
@<TRIPOS>SUBSTRUCTURE
     1 HEM4        1 TEMP              0 ****  ****    0 ROOT
