@<TRIPOS>MOLECULE
HEM461_input
   72    76     1     0     0
SMALL
USER_CHARGES


@<TRIPOS>ATOM
      1 CAA    -10.2720    1.6890   33.2100 c         1 HEM461     0.000000
      2 CAB     -6.4620    5.2020   24.6780 c         1 HEM461     0.000000
      3 CAC     -5.6640   -2.5280   24.0850 c         1 HEM461     0.000000
      4 CAD     -9.4730   -3.3430   31.5400 c         1 HEM461     0.000000
      5 NA      -8.7590    1.7760   29.7370 n         1 HEM461     0.000000
      6 CBA    -11.7690    1.4250   33.1010 c         1 HEM461     0.000000
      7 CBB     -6.1120    6.4900   24.6060 c         1 HEM461     0.000000
      8 CBC     -5.8300   -3.7640   24.5300 c         1 HEM461     0.000000
      9 CBD     -8.2700   -3.8530   32.3340 c         1 HEM461     0.000000
     10 NB      -7.7070    2.8170   27.3180 n         1 HEM461     0.000000
     11 CGA    -12.4320    1.4980   34.4530 c         1 HEM461     0.000000
     12 CGD     -8.6830   -4.2760   33.7200 c         1 HEM461     0.000000
     13 ND      -8.2480   -1.0010   28.8150 n         1 HEM461     0.000000
     14 CHA     -9.0610   -0.2850   31.0490 c         1 HEM461     0.000000
     15 CHB     -8.7960    4.1460   29.0620 c         1 HEM461     0.000000
     16 CHC     -6.5140    2.2100   25.2690 c         1 HEM461     0.000000
     17 CHD     -7.5560   -2.2780   26.8190 c         1 HEM461     0.000000
     18 CMA    -10.1010    4.5580   31.9240 c         1 HEM461     0.000000
     19 CMB     -8.0270    6.5900   27.2360 c         1 HEM461     0.000000
     20 CMC     -5.1000    0.3080   23.2200 c         1 HEM461     0.000000
     21 CMD     -8.4690   -4.8040   28.6400 c         1 HEM461     0.000000
     22 C1A     -9.1600    1.0750   30.8620 c         1 HEM461     0.000000
     23 C1B     -8.1270    4.0160   27.8650 c         1 HEM461     0.000000
     24 C1C     -6.5780    0.8430   25.3700 c         1 HEM461     0.000000
     25 C1D     -8.0580   -2.1880   28.1080 c         1 HEM461     0.000000
     26 O1A    -13.6650    1.2580   34.5320 o         1 HEM461     0.000000
     27 O1D     -8.2760   -5.3860   34.1590 o         1 HEM461     0.000000
     28 C2A     -9.7050    2.0250   31.8140 c         1 HEM461     0.000000
     29 C2B     -7.7320    5.0950   26.9750 c         1 HEM461     0.000000
     30 C2C     -5.9460   -0.0720   24.4550 c         1 HEM461     0.000000
     31 C2D     -8.4720   -3.2930   28.9590 c         1 HEM461     0.000000
     32 O2A    -11.7340    1.7980   35.4550 o         1 HEM461     0.000000
     33 O2D     -9.4290   -3.5060   34.3790 o         1 HEM461     0.000000
     34 C3A     -9.6310    3.2440   31.2680 c         1 HEM461     0.000000
     35 C3B     -7.1090    4.5430   25.9200 c         1 HEM461     0.000000
     36 C3C     -6.2070   -1.3100   24.8560 c         1 HEM461     0.000000
     37 C3D     -8.9400   -2.6480   30.2710 c         1 HEM461     0.000000
     38 C4A     -9.0360    3.1170   29.9500 c         1 HEM461     0.000000
     39 C4B     -7.0750    3.1140   26.1310 c         1 HEM461     0.000000
     40 C4C     -7.0350   -1.2400   26.0600 c         1 HEM461     0.000000
     41 C4D     -8.7620   -1.2300   30.0910 c         1 HEM461     0.000000
     42 NC      -7.2360    0.1030   26.3370 n         1 HEM461     0.000000
     43 HAA1   -10.1070    2.4230   33.8220 h         1 HEM461     0.000000
     44 HAA2    -9.8220    0.9100   33.5730 h         1 HEM461     0.000000
     45 HAB     -6.3000    4.6440   23.9010 h         1 HEM461     0.000000
     46 HAC     -5.1880   -2.3860   23.2520 h         1 HEM461     0.000000
     47 HAD1   -10.0610   -4.0780   31.3040 h         1 HEM461     0.000000
     48 HAD2    -9.9940   -2.7230   32.0740 h         1 HEM461     0.000000
     49 HBA1   -11.9190    0.5500   32.7110 h         1 HEM461     0.000000
     50 HBA2   -12.1720    2.0740   32.5040 h         1 HEM461     0.000000
     51 HBB1    -5.7100    6.8390   23.7950 h         1 HEM461     0.000000
     52 HBB2    -6.2600    7.0760   25.3650 h         1 HEM461     0.000000
     53 HBC1    -5.4780   -4.5130   24.0240 h         1 HEM461     0.000000
     54 HBC2    -6.3040   -3.9200   25.3620 h         1 HEM461     0.000000
     55 HBD1    -7.5960   -3.1570   32.3910 h         1 HEM461     0.000000
     56 HBD2    -7.8650   -4.6020   31.8700 h         1 HEM461     0.000000
     57 HHA     -9.2110   -0.5990   31.9110 h         1 HEM461     0.000000
     58 HHB     -9.1100    4.9910   29.2890 h         1 HEM461     0.000000
     59 HHC     -6.0440    2.5560   24.5450 h         1 HEM461     0.000000
     60 HHD     -7.5700   -3.1190   26.4230 h         1 HEM461     0.000000
     61 HMA1   -10.8410    4.3740   32.5230 h         1 HEM461     0.000000
     62 HMA2   -10.3890    5.1780   31.2360 h         1 HEM461     0.000000
     63 HMA3    -9.3690    4.9490   32.4260 h         1 HEM461     0.000000
     64 HMB1    -8.8490    6.6740   27.7450 h         1 HEM461     0.000000
     65 HMB2    -8.1220    7.0540   26.3890 h         1 HEM461     0.000000
     66 HMB3    -7.2950    6.9820   27.7380 h         1 HEM461     0.000000
     67 HMC1    -4.4330   -0.3780   23.0610 h         1 HEM461     0.000000
     68 HMC2    -4.6580    1.1570   23.3790 h         1 HEM461     0.000000
     69 HMC3    -5.6770    0.3840   22.4440 h         1 HEM461     0.000000
     70 HMD1    -8.3320   -5.3070   29.4580 h         1 HEM461     0.000000
     71 HMD2    -7.7540   -5.0020   28.0150 h         1 HEM461     0.000000
     72 HMD3    -9.3200   -5.0530   28.2460 h         1 HEM461     0.000000
@<TRIPOS>BOND
     1    1    6 1
     2    1   28 1
     3    1   43 1
     4    1   44 1
     5    2    7 1
     6    2   35 1
     7    2   45 1
     8    3    8 1
     9    3   36 1
    10    3   46 1
    11    4    9 1
    12    4   37 1
    13    4   47 1
    14    4   48 1
    15    5   22 1
    16    5   38 1
    17    6   11 1
    18    6   49 1
    19    6   50 1
    20    7   51 1
    21    7   52 1
    22    8   53 1
    23    8   54 1
    24    9   12 1
    25    9   55 1
    26    9   56 1
    27   10   23 1
    28   10   39 1
    29   11   26 1
    30   11   32 1
    31   12   27 1
    32   12   33 1
    33   13   25 1
    34   13   41 1
    35   14   22 1
    36   14   41 1
    37   14   57 1
    38   15   23 1
    39   15   38 1
    40   15   58 1
    41   16   24 1
    42   16   39 1
    43   16   59 1
    44   17   25 1
    45   17   40 1
    46   17   60 1
    47   18   34 1
    48   18   61 1
    49   18   62 1
    50   18   63 1
    51   19   29 1
    52   19   64 1
    53   19   65 1
    54   19   66 1
    55   20   30 1
    56   20   67 1
    57   20   68 1
    58   20   69 1
    59   21   31 1
    60   21   70 1
    61   21   71 1
    62   21   72 1
    63   22   28 1
    64   23   29 1
    65   24   30 1
    66   24   42 1
    67   25   31 1
    68   28   34 1
    69   29   35 1
    70   30   36 1
    71   31   37 1
    72   34   38 1
    73   35   39 1
    74   36   40 1
    75   37   41 1
    76   40   42 1
@<TRIPOS>SUBSTRUCTURE
     1 HEM461_input        1 TEMP              0 ****  ****    0 ROOT
