@<TRIPOS>MOLECULE
CM1
   10     9     1     0     0
SMALL
USER_CHARGES


@<TRIPOS>ATOM
      1 N       -6.1280    0.7270   32.8778 N         1 CM1     -0.415700
      2 CA      -5.8030    0.2871   31.5319 CX        1 CM1     -0.035100
      3 C       -4.6414   -0.7154   31.5480 C         1 CM1      0.597300
      4 O       -3.5267   -0.3952   31.9284 O         1 CM1     -0.567900
      5 CB      -5.4039    1.5111   30.7140 CT        1 CM1     -0.025042
      6 SG      -5.2416    1.1563   28.9355 Z1        1 CM1     -0.328133
      7 H       -6.4738    1.6672   32.9794 H         1 CM1      0.265724
      8 HA      -6.6699   -0.1888   31.0699 H1        1 CM1      0.090618
      9 HB3     -6.1365    2.3081   30.8635 H1        1 CM1      0.059395
     10 HB2     -4.4325    1.8578   31.0691 H1        1 CM1      0.059395
@<TRIPOS>BOND
     1    1    2 1
     2    1    7 1
     3    2    3 1
     4    2    5 1
     5    2    8 1
     6    3    4 1
     7    5    6 1
     8    5    9 1
     9    5   10 1
@<TRIPOS>SUBSTRUCTURE
     1 CM1         1 TEMP              0 ****  ****    0 ROOT
