@<TRIPOS>MOLECULE
CM1
   10     9     1     0     0
SMALL
USER_CHARGES


@<TRIPOS>ATOM
      1 N       -6.0916    0.7479   32.8789 N         1 CM1     -0.415700
      2 CA      -5.7862    0.3088   31.5274 CX        1 CM1     -0.035100
      3 C       -4.6267   -0.6971   31.5209 C         1 CM1      0.597300
      4 O       -3.5027   -0.3786   31.8730 O         1 CM1     -0.567900
      5 CB      -5.4000    1.5331   30.7049 CT        1 CM1     -0.010481
      6 SG      -5.2452    1.1714   28.9278 Y1        1 CM1     -0.325996
      7 H       -6.4628    1.6786   32.9812 H         1 CM1      0.264369
      8 HA      -6.6616   -0.1637   31.0775 H1        1 CM1      0.091382
      9 HB3     -6.1386    2.3243   30.8567 H1        1 CM1      0.054677
     10 HB2     -4.4292    1.8899   31.0519 H1        1 CM1      0.054677
@<TRIPOS>BOND
     1    1    2 1
     2    1    7 1
     3    2    3 1
     4    2    5 1
     5    2    8 1
     6    3    4 1
     7    5    6 1
     8    5    9 1
     9    5   10 1
@<TRIPOS>SUBSTRUCTURE
     1 CM1         1 TEMP              0 ****  ****    0 ROOT
