@<TRIPOS>MOLECULE
HM1
   72    76     1     0     0
SMALL
USER_CHARGES


@<TRIPOS>ATOM
      1 CAA    -10.2856    1.6607   33.1670 c3        1 HM1     -0.127441
      2 CAB     -6.8406    5.2213   24.6279 ce        1 HM1     -0.104724
      3 CAC     -5.9531   -2.5876   24.1555 ce        1 HM1     -0.112167
      4 CAD     -9.1536   -3.4508   31.4180 c3        1 HM1     -0.072972
      5 NA      -8.6668    1.7221   29.7633 Y2        1 HM1     -0.126273
      6 CBA    -11.8059    1.8964   33.2120 c3        1 HM1      0.000010
      7 CBB     -6.3028    6.4387   24.5715 c2        1 HM1     -0.358743
      8 CBC     -5.2717   -3.5665   24.7447 c2        1 HM1     -0.348192
      9 CBD     -7.9698   -4.0859   32.1700 c3        1 HM1     -0.012777
     10 NB      -7.7774    2.7899   27.2474 Y3        1 HM1     -0.180159
     11 CGA    -12.2488    3.1344   34.0603 c         1 HM1      0.657559
     12 CGD     -8.4001   -5.3975   32.8789 c         1 HM1      0.630622
     13 ND      -8.1559   -0.8791   28.8516 Y4        1 HM1     -0.140285
     14 CHA     -9.1772   -0.3139   30.9953 ce        1 HM1     -0.112802
     15 CHB     -8.5868    4.0862   29.1566 ce        1 HM1     -0.115037
     16 CHC     -6.8746    2.1919   25.0655 cf        1 HM1     -0.125897
     17 CHD     -7.2485   -2.2071   27.0045 ce        1 HM1     -0.118298
     18 CMA     -9.8598    4.5686   31.8899 c3        1 HM1     -0.161161
     19 CMB     -8.0752    6.5044   27.3411 c3        1 HM1     -0.156763
     20 CMC     -5.8309    0.2995   22.8806 c3        1 HM1     -0.180435
     21 CMD     -7.9225   -4.6196   28.7970 c3        1 HM1     -0.267941
     22 C1A     -9.1568    1.0613   30.8567 cc        1 HM1      0.000749
     23 C1B     -8.0716    3.9645   27.8619 cc        1 HM1      0.009522
     24 C1C     -6.8226    0.8197   25.2254 cd        1 HM1      0.002432
     25 C1D     -7.8097   -2.0668   28.2491 cc        1 HM1     -0.089299
     26 O1A    -13.4606    3.4099   33.9711 o         1 HM1     -0.708408
     27 O1D     -7.6161   -6.3650   32.7562 o         1 HM1     -0.716587
     28 C2A     -9.6633    2.0044   31.8511 cc        1 HM1     -0.014867
     29 C2B     -7.8020    5.0773   26.9945 cc        1 HM1      0.058372
     30 C2C     -6.3489   -0.0952   24.2272 cd        1 HM1      0.026224
     31 C2D     -8.1457   -3.1780   29.1110 cc        1 HM1      0.147896
     32 O2A    -11.3628    3.7082   34.7358 o         1 HM1     -0.694836
     33 O2D     -9.4989   -5.3432   33.4713 o         1 HM1     -0.696396
     34 C3A     -9.4863    3.2411   31.3187 cd        1 HM1      0.053209
     35 C3B     -7.3090    4.5437   25.8310 cc        1 HM1     -0.027432
     36 C3C     -6.4018   -1.3434   24.7857 cc        1 HM1     -0.022444
     37 C3D     -8.6976   -2.6605   30.2379 cd        1 HM1     -0.067550
     38 C4A     -8.8775    3.0588   30.0158 cd        1 HM1     -0.009587
     39 C4B     -7.3118    3.1125   26.0042 cc        1 HM1     -0.012319
     40 C4C     -6.9439   -1.1746   26.1154 cd        1 HM1      0.015823
     41 C4D     -8.6999   -1.2161   30.0585 cd        1 HM1      0.003386
     42 NC      -7.1807    0.1386   26.3622 Y5        1 HM1     -0.101255
     43 HAA1    -9.8719    2.3174   33.9399 hc        1 HM1      0.056058
     44 HAA2   -10.0360    0.6335   33.4410 hc        1 HM1      0.056058
     45 HAB     -6.9239    4.6606   23.7013 ha        1 HM1      0.115221
     46 HAC     -6.1817   -2.6918   23.0979 ha        1 HM1      0.114993
     47 HAD1    -9.8029   -4.2555   31.0646 hc        1 HM1      0.042998
     48 HAD2    -9.7672   -2.8644   32.1001 hc        1 HM1      0.042998
     49 HBA1   -12.3120    1.0283   33.6397 hc        1 HM1     -0.013139
     50 HBA2   -12.2172    2.0273   32.2089 hc        1 HM1     -0.013139
     51 HBB1    -5.9847    6.8598   23.6273 ha        1 HM1      0.136149
     52 HBB2    -6.1409    7.0365   25.4588 ha        1 HM1      0.136149
     53 HBC1    -4.9707   -4.4428   24.1853 ha        1 HM1      0.145948
     54 HBC2    -4.9781   -3.5161   25.7853 ha        1 HM1      0.145948
     55 HBD1    -7.5733   -3.3857   32.9102 hc        1 HM1      0.008758
     56 HBD2    -7.1582   -4.3200   31.4764 hc        1 HM1      0.008758
     57 HHA     -9.5848   -0.7218   31.9091 ha        1 HM1      0.155961
     58 HHB     -8.8000    5.0850   29.5137 ha        1 HM1      0.104388
     59 HHC     -6.5282    2.5759   24.1155 ha        1 HM1      0.120576
     60 HHD     -7.0533   -3.2172   26.6763 ha        1 HM1      0.118023
     61 HMA1   -10.2121    4.4753   32.9180 hc        1 HM1      0.057506
     62 HMA2   -10.6619    5.0273   31.3037 hc        1 HM1      0.057506
     63 HMA3    -9.0067    5.2533   31.8635 hc        1 HM1      0.057506
     64 HMB1    -9.0324    6.6033   27.8553 hc        1 HM1      0.054888
     65 HMB2    -8.1095    7.1254   26.4476 hc        1 HM1      0.054888
     66 HMB3    -7.3074    6.9125   28.0042 hc        1 HM1      0.054888
     67 HMC1    -5.3081   -0.5240   22.3947 hc        1 HM1      0.058448
     68 HMC2    -5.1261    1.1294   22.9650 hc        1 HM1      0.058448
     69 HMC3    -6.6334    0.6272   22.2146 hc        1 HM1      0.058448
     70 HMD1    -8.3551   -5.2564   29.5676 hc        1 HM1      0.083944
     71 HMD2    -6.8566   -4.8579   28.7461 hc        1 HM1      0.083944
     72 HMD3    -8.3686   -4.8850   27.8354 hc        1 HM1      0.083944
@<TRIPOS>BOND
     1    1    6 1
     2    1   28 1
     3    1   43 1
     4    1   44 1
     5    2    7 1
     6    2   35 1
     7    2   45 1
     8    3    8 1
     9    3   36 1
    10    3   46 1
    11    4    9 1
    12    4   37 1
    13    4   47 1
    14    4   48 1
    15    5   22 1
    16    5   38 1
    17    6   11 1
    18    6   49 1
    19    6   50 1
    20    7   51 1
    21    7   52 1
    22    8   53 1
    23    8   54 1
    24    9   12 1
    25    9   55 1
    26    9   56 1
    27   10   23 1
    28   10   39 1
    29   11   26 1
    30   11   32 1
    31   12   27 1
    32   12   33 1
    33   13   25 1
    34   13   41 1
    35   14   22 1
    36   14   41 1
    37   14   57 1
    38   15   23 1
    39   15   38 1
    40   15   58 1
    41   16   24 1
    42   16   39 1
    43   16   59 1
    44   17   25 1
    45   17   40 1
    46   17   60 1
    47   18   34 1
    48   18   61 1
    49   18   62 1
    50   18   63 1
    51   19   29 1
    52   19   64 1
    53   19   65 1
    54   19   66 1
    55   20   30 1
    56   20   67 1
    57   20   68 1
    58   20   69 1
    59   21   31 1
    60   21   70 1
    61   21   71 1
    62   21   72 1
    63   22   28 1
    64   23   29 1
    65   24   30 1
    66   24   42 1
    67   25   31 1
    68   28   34 1
    69   29   35 1
    70   30   36 1
    71   31   37 1
    72   34   38 1
    73   35   39 1
    74   36   40 1
    75   37   41 1
    76   40   42 1
@<TRIPOS>SUBSTRUCTURE
     1 HM1         1 TEMP              0 ****  ****    0 ROOT
