@<TRIPOS>MOLECULE
HM1
   72    76     1     0     0
SMALL
USER_CHARGES


@<TRIPOS>ATOM
      1 CAA    -10.2870    1.6588   33.1651 c3        1 HM1     -0.138877
      2 CAB     -6.8492    5.2230   24.6259 ce        1 HM1     -0.111077
      3 CAC     -5.9524   -2.5803   24.1543 ce        1 HM1     -0.124700
      4 CAD     -9.1326   -3.4568   31.4255 c3        1 HM1     -0.075951
      5 NA      -8.6569    1.7281   29.7686 Z2        1 HM1     -0.120826
      6 CBA    -11.8020    1.9333   33.2289 c3        1 HM1     -0.002774
      7 CBB     -6.3203    6.4427   24.5538 c2        1 HM1     -0.367769
      8 CBC     -5.2258   -3.5226   24.7473 c2        1 HM1     -0.342348
      9 CBD     -7.9531   -4.1269   32.1557 c3        1 HM1      0.009249
     10 NB      -7.7814    2.7937   27.2474 Z3        1 HM1     -0.195708
     11 CGA    -12.2041    3.2287   34.0099 c         1 HM1      0.666600
     12 CGD     -8.3787   -5.4702   32.8083 c         1 HM1      0.628344
     13 ND      -8.1473   -0.8808   28.8525 Z4        1 HM1     -0.163485
     14 CHA     -9.1714   -0.3103   30.9946 cf        1 HM1     -0.100337
     15 CHB     -8.5694    4.0920   29.1633 ce        1 HM1     -0.107701
     16 CHC     -6.9175    2.1923   25.0543 ce        1 HM1     -0.127122
     17 CHD     -7.2236   -2.2049   27.0126 ce        1 HM1     -0.118210
     18 CMA     -9.8477    4.5846   31.8809 c3        1 HM1     -0.159902
     19 CMB     -8.0703    6.5064   27.3530 c3        1 HM1     -0.148411
     20 CMC     -5.8932    0.2983   22.8650 c3        1 HM1     -0.177005
     21 CMD     -7.8745   -4.6199   28.8180 c3        1 HM1     -0.270735
     22 C1A     -9.1560    1.0672   30.8570 cc        1 HM1     -0.003451
     23 C1B     -8.0669    3.9689   27.8648 cd        1 HM1      0.011293
     24 C1C     -6.8566    0.8217   25.2190 cd        1 HM1      0.003826
     25 C1D     -7.7897   -2.0682   28.2561 cc        1 HM1     -0.071878
     26 O1A    -13.3925    3.5729   33.8663 o         1 HM1     -0.709571
     27 O1D     -7.5698   -6.4161   32.6788 o         1 HM1     -0.714156
     28 C2A     -9.6628    2.0130   31.8509 cc        1 HM1     -0.010738
     29 C2B     -7.8010    5.0815   26.9977 cd        1 HM1      0.058575
     30 C2C     -6.3876   -0.0931   24.2191 cd        1 HM1      0.040955
     31 C2D     -8.1157   -3.1786   29.1229 cc        1 HM1      0.136995
     32 O2A    -11.3106    3.7702   34.7033 o         1 HM1     -0.700741
     33 O2D     -9.4946   -5.4568   33.3714 o         1 HM1     -0.699297
     34 C3A     -9.4765    3.2509   31.3218 cd        1 HM1      0.054564
     35 C3B     -7.3191    4.5485   25.8293 cc        1 HM1     -0.019581
     36 C3C     -6.4148   -1.3385   24.7825 cc        1 HM1     -0.036437
     37 C3D     -8.6758   -2.6609   30.2467 cd        1 HM1     -0.060813
     38 C4A     -8.8639    3.0655   30.0217 cd        1 HM1     -0.013233
     39 C4B     -7.3323    3.1167   25.9993 cc        1 HM1     -0.009268
     40 C4C     -6.9403   -1.1703   26.1196 cc        1 HM1      0.020224
     41 C4D     -8.6903   -1.2151   30.0611 cd        1 HM1      0.007566
     42 NC      -7.1897    0.1417   26.3638 Z5        1 HM1     -0.105670
     43 HAA1    -9.8505    2.2824   33.9534 hc        1 HM1      0.061964
     44 HAA2   -10.0697    0.6157   33.4092 hc        1 HM1      0.061964
     45 HAB     -6.9153    4.6528   23.7044 ha        1 HM1      0.120883
     46 HAC     -6.2022   -2.7094   23.1035 ha        1 HM1      0.122799
     47 HAD1    -9.8050   -4.2447   31.0767 hc        1 HM1      0.043656
     48 HAD2    -9.7256   -2.8678   32.1233 hc        1 HM1      0.043656
     49 HBA1   -12.3126    1.1021   33.7229 hc        1 HM1     -0.015682
     50 HBA2   -12.2362    2.0011   32.2304 hc        1 HM1     -0.015682
     51 HBB1    -6.0053    6.8520   23.6035 ha        1 HM1      0.139445
     52 HBB2    -6.1641    7.0577   25.4293 ha        1 HM1      0.139445
     53 HBC1    -4.9133   -4.4085   24.2091 ha        1 HM1      0.146074
     54 HBC2    -4.9096   -3.4297   25.7787 ha        1 HM1      0.146074
     55 HBD1    -7.5579   -3.4577   32.9247 hc        1 HM1     -0.000799
     56 HBD2    -7.1369   -4.3308   31.4584 hc        1 HM1     -0.000799
     57 HHA     -9.5718   -0.7209   31.9105 ha        1 HM1      0.144957
     58 HHB     -8.7779    5.0912   29.5205 ha        1 HM1      0.104631
     59 HHC     -6.5973    2.5719   24.0942 ha        1 HM1      0.117479
     60 HHD     -7.0133   -3.2122   26.6838 ha        1 HM1      0.122150
     61 HMA1   -10.1734    4.5089   32.9189 hc        1 HM1      0.056826
     62 HMA2   -10.6704    5.0199   31.3051 hc        1 HM1      0.056826
     63 HMA3    -9.0020    5.2756   31.8172 hc        1 HM1      0.056826
     64 HMB1    -9.0407    6.6080   27.8407 hc        1 HM1      0.051634
     65 HMB2    -8.0740    7.1402   26.4688 hc        1 HM1      0.051634
     66 HMB3    -7.3193    6.8960   28.0448 hc        1 HM1      0.051634
     67 HMC1    -5.3993   -0.5353   22.3680 hc        1 HM1      0.055994
     68 HMC2    -5.1692    1.1123   22.9371 hc        1 HM1      0.055994
     69 HMC3    -6.7053    0.6443   22.2210 hc        1 HM1      0.055994
     70 HMD1    -8.3388   -5.2570   29.5699 hc        1 HM1      0.084168
     71 HMD2    -6.8062   -4.8550   28.8150 hc        1 HM1      0.084168
     72 HMD3    -8.2770   -4.8865   27.8377 hc        1 HM1      0.084168
@<TRIPOS>BOND
     1    1    6 1
     2    1   28 1
     3    1   43 1
     4    1   44 1
     5    2    7 1
     6    2   35 1
     7    2   45 1
     8    3    8 1
     9    3   36 1
    10    3   46 1
    11    4    9 1
    12    4   37 1
    13    4   47 1
    14    4   48 1
    15    5   22 1
    16    5   38 1
    17    6   11 1
    18    6   49 1
    19    6   50 1
    20    7   51 1
    21    7   52 1
    22    8   53 1
    23    8   54 1
    24    9   12 1
    25    9   55 1
    26    9   56 1
    27   10   23 1
    28   10   39 1
    29   11   26 1
    30   11   32 1
    31   12   27 1
    32   12   33 1
    33   13   25 1
    34   13   41 1
    35   14   22 1
    36   14   41 1
    37   14   57 1
    38   15   23 1
    39   15   38 1
    40   15   58 1
    41   16   24 1
    42   16   39 1
    43   16   59 1
    44   17   25 1
    45   17   40 1
    46   17   60 1
    47   18   34 1
    48   18   61 1
    49   18   62 1
    50   18   63 1
    51   19   29 1
    52   19   64 1
    53   19   65 1
    54   19   66 1
    55   20   30 1
    56   20   67 1
    57   20   68 1
    58   20   69 1
    59   21   31 1
    60   21   70 1
    61   21   71 1
    62   21   72 1
    63   22   28 1
    64   23   29 1
    65   24   30 1
    66   24   42 1
    67   25   31 1
    68   28   34 1
    69   29   35 1
    70   30   36 1
    71   31   37 1
    72   34   38 1
    73   35   39 1
    74   36   40 1
    75   37   41 1
    76   40   42 1
@<TRIPOS>SUBSTRUCTURE
     1 HM1         1 TEMP              0 ****  ****    0 ROOT
