@<TRIPOS>MOLECULE
P450_metal_site
   83    90     1     0     0
SMALL
USER_CHARGES


@<TRIPOS>ATOM
      1 N       -6.0916    0.7479   32.8789 N         1 CYM     -0.415700
      2 CA      -5.7862    0.3088   31.5274 CX        1 CYM     -0.035100
      3 C       -4.6267   -0.6971   31.5209 C         1 CYM      0.597300
      4 O       -3.5027   -0.3786   31.8730 O         1 CYM     -0.567900
      5 CB      -5.4000    1.5331   30.7049 CT        1 CYM     -0.010481
      6 SG      -5.2452    1.1714   28.9278 Y1        1 CYM     -0.325996
      7 H       -6.4628    1.6786   32.9812 H         1 CYM      0.264369
      8 HA      -6.6616   -0.1637   31.0775 H1        1 CYM      0.091382
      9 HB3     -6.1386    2.3243   30.8567 H1        1 CYM      0.054677
     10 HB2     -4.4292    1.8899   31.0519 H1        1 CYM      0.054677
     11 CAA    -10.2856    1.6607   33.1670 c3        1 HEM     -0.127441
     12 CAB     -6.8406    5.2213   24.6279 ce        1 HEM     -0.104724
     13 CAC     -5.9531   -2.5876   24.1555 ce        1 HEM     -0.112167
     14 CAD     -9.1536   -3.4508   31.4180 c3        1 HEM     -0.072972
     15 NA      -8.6668    1.7221   29.7633 Y2        1 HEM     -0.126273
     16 CBA    -11.8059    1.8964   33.2120 c3        1 HEM      0.000010
     17 CBB     -6.3028    6.4387   24.5715 c2        1 HEM     -0.358743
     18 CBC     -5.2717   -3.5665   24.7447 c2        1 HEM     -0.348192
     19 CBD     -7.9698   -4.0859   32.1700 c3        1 HEM     -0.012777
     20 NB      -7.7774    2.7899   27.2474 Y3        1 HEM     -0.180159
     21 CGA    -12.2488    3.1344   34.0603 c         1 HEM      0.657559
     22 CGD     -8.4001   -5.3975   32.8789 c         1 HEM      0.630622
     23 ND      -8.1559   -0.8791   28.8516 Y4        1 HEM     -0.140285
     24 CHA     -9.1772   -0.3139   30.9953 ce        1 HEM     -0.112802
     25 CHB     -8.5868    4.0862   29.1566 ce        1 HEM     -0.115037
     26 CHC     -6.8746    2.1919   25.0655 cf        1 HEM     -0.125897
     27 CHD     -7.2485   -2.2071   27.0045 ce        1 HEM     -0.118298
     28 CMA     -9.8598    4.5686   31.8899 c3        1 HEM     -0.161161
     29 CMB     -8.0752    6.5044   27.3411 c3        1 HEM     -0.156763
     30 CMC     -5.8309    0.2995   22.8806 c3        1 HEM     -0.180435
     31 CMD     -7.9225   -4.6196   28.7970 c3        1 HEM     -0.267941
     32 C1A     -9.1568    1.0613   30.8567 cc        1 HEM      0.000749
     33 C1B     -8.0716    3.9645   27.8619 cc        1 HEM      0.009522
     34 C1C     -6.8226    0.8197   25.2254 cd        1 HEM      0.002432
     35 C1D     -7.8097   -2.0668   28.2491 cc        1 HEM     -0.089299
     36 O1A    -13.4606    3.4099   33.9711 o         1 HEM     -0.708408
     37 O1D     -7.6161   -6.3650   32.7562 o         1 HEM     -0.716587
     38 C2A     -9.6633    2.0044   31.8511 cc        1 HEM     -0.014867
     39 C2B     -7.8020    5.0773   26.9945 cc        1 HEM      0.058372
     40 C2C     -6.3489   -0.0952   24.2272 cd        1 HEM      0.026224
     41 C2D     -8.1457   -3.1780   29.1110 cc        1 HEM      0.147896
     42 O2A    -11.3628    3.7082   34.7358 o         1 HEM     -0.694836
     43 O2D     -9.4989   -5.3432   33.4713 o         1 HEM     -0.696396
     44 C3A     -9.4863    3.2411   31.3187 cd        1 HEM      0.053209
     45 C3B     -7.3090    4.5437   25.8310 cc        1 HEM     -0.027432
     46 C3C     -6.4018   -1.3434   24.7857 cc        1 HEM     -0.022444
     47 C3D     -8.6976   -2.6605   30.2379 cd        1 HEM     -0.067550
     48 C4A     -8.8775    3.0588   30.0158 cd        1 HEM     -0.009587
     49 C4B     -7.3118    3.1125   26.0042 cc        1 HEM     -0.012319
     50 C4C     -6.9439   -1.1746   26.1154 cd        1 HEM      0.015823
     51 C4D     -8.6999   -1.2161   30.0585 cd        1 HEM      0.003386
     52 NC      -7.1807    0.1386   26.3622 Y5        1 HEM     -0.101255
     53 HAA1    -9.8719    2.3174   33.9399 hc        1 HEM      0.056058
     54 HAA2   -10.0360    0.6335   33.4410 hc        1 HEM      0.056058
     55 HAB     -6.9239    4.6606   23.7013 ha        1 HEM      0.115221
     56 HAC     -6.1817   -2.6918   23.0979 ha        1 HEM      0.114993
     57 HAD1    -9.8029   -4.2555   31.0646 hc        1 HEM      0.042998
     58 HAD2    -9.7672   -2.8644   32.1001 hc        1 HEM      0.042998
     59 HBA1   -12.3120    1.0283   33.6397 hc        1 HEM     -0.013139
     60 HBA2   -12.2172    2.0273   32.2089 hc        1 HEM     -0.013139
     61 HBB1    -5.9847    6.8598   23.6273 ha        1 HEM      0.136149
     62 HBB2    -6.1409    7.0365   25.4588 ha        1 HEM      0.136149
     63 HBC1    -4.9707   -4.4428   24.1853 ha        1 HEM      0.145948
     64 HBC2    -4.9781   -3.5161   25.7853 ha        1 HEM      0.145948
     65 HBD1    -7.5733   -3.3857   32.9102 hc        1 HEM      0.008758
     66 HBD2    -7.1582   -4.3200   31.4764 hc        1 HEM      0.008758
     67 HHA     -9.5848   -0.7218   31.9091 ha        1 HEM      0.155961
     68 HHB     -8.8000    5.0850   29.5137 ha        1 HEM      0.104388
     69 HHC     -6.5282    2.5759   24.1155 ha        1 HEM      0.120576
     70 HHD     -7.0533   -3.2172   26.6763 ha        1 HEM      0.118023
     71 HMA1   -10.2121    4.4753   32.9180 hc        1 HEM      0.057506
     72 HMA2   -10.6619    5.0273   31.3037 hc        1 HEM      0.057506
     73 HMA3    -9.0067    5.2533   31.8635 hc        1 HEM      0.057506
     74 HMB1    -9.0324    6.6033   27.8553 hc        1 HEM      0.054888
     75 HMB2    -8.1095    7.1254   26.4476 hc        1 HEM      0.054888
     76 HMB3    -7.3074    6.9125   28.0042 hc        1 HEM      0.054888
     77 HMC1    -5.3081   -0.5240   22.3947 hc        1 HEM      0.058448
     78 HMC2    -5.1261    1.1294   22.9650 hc        1 HEM      0.058448
     79 HMC3    -6.6334    0.6272   22.2146 hc        1 HEM      0.058448
     80 HMD1    -8.3551   -5.2564   29.5676 hc        1 HEM      0.083944
     81 HMD2    -6.8566   -4.8579   28.7461 hc        1 HEM      0.083944
     82 HMD3    -8.3686   -4.8850   27.8354 hc        1 HEM      0.083944
     83 FE      -7.4500    0.9743   28.2618 M1        1 FE       0.422951
@<TRIPOS>BOND
     1    1    2 1
     2    1    7 1
     3    2    3 1
     4    2    5 1
     5    2    8 1
     6    3    4 1
     7    5    6 1
     8    5    9 1
     9    5   10 1
    10    6   83 1
    11   11   16 1
    12   11   38 1
    13   11   53 1
    14   11   54 1
    15   12   17 1
    16   12   45 1
    17   12   55 1
    18   13   18 1
    19   13   46 1
    20   13   56 1
    21   14   19 1
    22   14   47 1
    23   14   57 1
    24   14   58 1
    25   15   32 1
    26   15   48 1
    27   15   83 1
    28   16   21 1
    29   16   59 1
    30   16   60 1
    31   17   61 1
    32   17   62 1
    33   18   63 1
    34   18   64 1
    35   19   22 1
    36   19   65 1
    37   19   66 1
    38   20   33 1
    39   20   49 1
    40   20   83 1
    41   21   36 1
    42   21   42 1
    43   22   37 1
    44   22   43 1
    45   23   35 1
    46   23   51 1
    47   23   83 1
    48   24   32 1
    49   24   51 1
    50   24   67 1
    51   25   33 1
    52   25   48 1
    53   25   68 1
    54   26   34 1
    55   26   49 1
    56   26   69 1
    57   27   35 1
    58   27   50 1
    59   27   70 1
    60   28   44 1
    61   28   71 1
    62   28   72 1
    63   28   73 1
    64   29   39 1
    65   29   74 1
    66   29   75 1
    67   29   76 1
    68   30   40 1
    69   30   77 1
    70   30   78 1
    71   30   79 1
    72   31   41 1
    73   31   80 1
    74   31   81 1
    75   31   82 1
    76   32   38 1
    77   33   39 1
    78   34   40 1
    79   34   52 1
    80   35   41 1
    81   38   44 1
    82   39   45 1
    83   40   46 1
    84   41   47 1
    85   44   48 1
    86   45   49 1
    87   46   50 1
    88   47   51 1
    89   50   52 1
    90   52   83 1
@<TRIPOS>SUBSTRUCTURE
     1 P450_metal_site        1 TEMP              0 ****  ****    0 ROOT
