@<TRIPOS>MOLECULE
P450_metal_site
   83    90     1     0     0
SMALL
USER_CHARGES


@<TRIPOS>ATOM
      1 N       -6.1280    0.7270   32.8778 N         1 CYM     -0.415700
      2 CA      -5.8030    0.2871   31.5319 CX        1 CYM     -0.035100
      3 C       -4.6414   -0.7154   31.5480 C         1 CYM      0.597300
      4 O       -3.5267   -0.3952   31.9284 O         1 CYM     -0.567900
      5 CB      -5.4039    1.5111   30.7140 CT        1 CYM     -0.025042
      6 SG      -5.2416    1.1563   28.9355 Z1        1 CYM     -0.328133
      7 H       -6.4738    1.6672   32.9794 H         1 CYM      0.265724
      8 HA      -6.6699   -0.1888   31.0699 H1        1 CYM      0.090618
      9 HB3     -6.1365    2.3081   30.8635 H1        1 CYM      0.059395
     10 HB2     -4.4325    1.8578   31.0691 H1        1 CYM      0.059395
     11 CAA    -10.2870    1.6588   33.1651 c3        1 HEM     -0.138877
     12 CAB     -6.8492    5.2230   24.6259 ce        1 HEM     -0.111077
     13 CAC     -5.9524   -2.5803   24.1543 ce        1 HEM     -0.124700
     14 CAD     -9.1326   -3.4568   31.4255 c3        1 HEM     -0.075951
     15 NA      -8.6569    1.7281   29.7686 Z2        1 HEM     -0.120826
     16 CBA    -11.8020    1.9333   33.2289 c3        1 HEM     -0.002774
     17 CBB     -6.3203    6.4427   24.5538 c2        1 HEM     -0.367769
     18 CBC     -5.2258   -3.5226   24.7473 c2        1 HEM     -0.342348
     19 CBD     -7.9531   -4.1269   32.1557 c3        1 HEM      0.009249
     20 NB      -7.7814    2.7937   27.2474 Z3        1 HEM     -0.195708
     21 CGA    -12.2041    3.2287   34.0099 c         1 HEM      0.666600
     22 CGD     -8.3787   -5.4702   32.8083 c         1 HEM      0.628344
     23 ND      -8.1473   -0.8808   28.8525 Z4        1 HEM     -0.163485
     24 CHA     -9.1714   -0.3103   30.9946 cf        1 HEM     -0.100337
     25 CHB     -8.5694    4.0920   29.1633 ce        1 HEM     -0.107701
     26 CHC     -6.9175    2.1923   25.0543 ce        1 HEM     -0.127122
     27 CHD     -7.2236   -2.2049   27.0126 ce        1 HEM     -0.118210
     28 CMA     -9.8477    4.5846   31.8809 c3        1 HEM     -0.159902
     29 CMB     -8.0703    6.5064   27.3530 c3        1 HEM     -0.148411
     30 CMC     -5.8932    0.2983   22.8650 c3        1 HEM     -0.177005
     31 CMD     -7.8745   -4.6199   28.8180 c3        1 HEM     -0.270735
     32 C1A     -9.1560    1.0672   30.8570 cc        1 HEM     -0.003451
     33 C1B     -8.0669    3.9689   27.8648 cd        1 HEM      0.011293
     34 C1C     -6.8566    0.8217   25.2190 cd        1 HEM      0.003826
     35 C1D     -7.7897   -2.0682   28.2561 cc        1 HEM     -0.071878
     36 O1A    -13.3925    3.5729   33.8663 o         1 HEM     -0.709571
     37 O1D     -7.5698   -6.4161   32.6788 o         1 HEM     -0.714156
     38 C2A     -9.6628    2.0130   31.8509 cc        1 HEM     -0.010738
     39 C2B     -7.8010    5.0815   26.9977 cd        1 HEM      0.058575
     40 C2C     -6.3876   -0.0931   24.2191 cd        1 HEM      0.040955
     41 C2D     -8.1157   -3.1786   29.1229 cc        1 HEM      0.136995
     42 O2A    -11.3106    3.7702   34.7033 o         1 HEM     -0.700741
     43 O2D     -9.4946   -5.4568   33.3714 o         1 HEM     -0.699297
     44 C3A     -9.4765    3.2509   31.3218 cd        1 HEM      0.054564
     45 C3B     -7.3191    4.5485   25.8293 cc        1 HEM     -0.019581
     46 C3C     -6.4148   -1.3385   24.7825 cc        1 HEM     -0.036437
     47 C3D     -8.6758   -2.6609   30.2467 cd        1 HEM     -0.060813
     48 C4A     -8.8639    3.0655   30.0217 cd        1 HEM     -0.013233
     49 C4B     -7.3323    3.1167   25.9993 cc        1 HEM     -0.009268
     50 C4C     -6.9403   -1.1703   26.1196 cc        1 HEM      0.020224
     51 C4D     -8.6903   -1.2151   30.0611 cd        1 HEM      0.007566
     52 NC      -7.1897    0.1417   26.3638 Z5        1 HEM     -0.105670
     53 HAA1    -9.8505    2.2824   33.9534 hc        1 HEM      0.061964
     54 HAA2   -10.0697    0.6157   33.4092 hc        1 HEM      0.061964
     55 HAB     -6.9153    4.6528   23.7044 ha        1 HEM      0.120883
     56 HAC     -6.2022   -2.7094   23.1035 ha        1 HEM      0.122799
     57 HAD1    -9.8050   -4.2447   31.0767 hc        1 HEM      0.043656
     58 HAD2    -9.7256   -2.8678   32.1233 hc        1 HEM      0.043656
     59 HBA1   -12.3126    1.1021   33.7229 hc        1 HEM     -0.015682
     60 HBA2   -12.2362    2.0011   32.2304 hc        1 HEM     -0.015682
     61 HBB1    -6.0053    6.8520   23.6035 ha        1 HEM      0.139445
     62 HBB2    -6.1641    7.0577   25.4293 ha        1 HEM      0.139445
     63 HBC1    -4.9133   -4.4085   24.2091 ha        1 HEM      0.146074
     64 HBC2    -4.9096   -3.4297   25.7787 ha        1 HEM      0.146074
     65 HBD1    -7.5579   -3.4577   32.9247 hc        1 HEM     -0.000799
     66 HBD2    -7.1369   -4.3308   31.4584 hc        1 HEM     -0.000799
     67 HHA     -9.5718   -0.7209   31.9105 ha        1 HEM      0.144957
     68 HHB     -8.7779    5.0912   29.5205 ha        1 HEM      0.104631
     69 HHC     -6.5973    2.5719   24.0942 ha        1 HEM      0.117479
     70 HHD     -7.0133   -3.2122   26.6838 ha        1 HEM      0.122150
     71 HMA1   -10.1734    4.5089   32.9189 hc        1 HEM      0.056826
     72 HMA2   -10.6704    5.0199   31.3051 hc        1 HEM      0.056826
     73 HMA3    -9.0020    5.2756   31.8172 hc        1 HEM      0.056826
     74 HMB1    -9.0407    6.6080   27.8407 hc        1 HEM      0.051634
     75 HMB2    -8.0740    7.1402   26.4688 hc        1 HEM      0.051634
     76 HMB3    -7.3193    6.8960   28.0448 hc        1 HEM      0.051634
     77 HMC1    -5.3993   -0.5353   22.3680 hc        1 HEM      0.055994
     78 HMC2    -5.1692    1.1123   22.9371 hc        1 HEM      0.055994
     79 HMC3    -6.7053    0.6443   22.2210 hc        1 HEM      0.055994
     80 HMD1    -8.3388   -5.2570   29.5699 hc        1 HEM      0.084168
     81 HMD2    -6.8062   -4.8550   28.8150 hc        1 HEM      0.084168
     82 HMD3    -8.2770   -4.8865   27.8377 hc        1 HEM      0.084168
     83 FE      -7.4445    0.9763   28.2633 M1        1 FE       0.440945
@<TRIPOS>BOND
     1    1    2 1
     2    1    7 1
     3    2    3 1
     4    2    5 1
     5    2    8 1
     6    3    4 1
     7    5    6 1
     8    5    9 1
     9    5   10 1
    10    6   83 1
    11   11   16 1
    12   11   38 1
    13   11   53 1
    14   11   54 1
    15   12   17 1
    16   12   45 1
    17   12   55 1
    18   13   18 1
    19   13   46 1
    20   13   56 1
    21   14   19 1
    22   14   47 1
    23   14   57 1
    24   14   58 1
    25   15   32 1
    26   15   48 1
    27   15   83 1
    28   16   21 1
    29   16   59 1
    30   16   60 1
    31   17   61 1
    32   17   62 1
    33   18   63 1
    34   18   64 1
    35   19   22 1
    36   19   65 1
    37   19   66 1
    38   20   33 1
    39   20   49 1
    40   20   83 1
    41   21   36 1
    42   21   42 1
    43   22   37 1
    44   22   43 1
    45   23   35 1
    46   23   51 1
    47   23   83 1
    48   24   32 1
    49   24   51 1
    50   24   67 1
    51   25   33 1
    52   25   48 1
    53   25   68 1
    54   26   34 1
    55   26   49 1
    56   26   69 1
    57   27   35 1
    58   27   50 1
    59   27   70 1
    60   28   44 1
    61   28   71 1
    62   28   72 1
    63   28   73 1
    64   29   39 1
    65   29   74 1
    66   29   75 1
    67   29   76 1
    68   30   40 1
    69   30   77 1
    70   30   78 1
    71   30   79 1
    72   31   41 1
    73   31   80 1
    74   31   81 1
    75   31   82 1
    76   32   38 1
    77   33   39 1
    78   34   40 1
    79   34   52 1
    80   35   41 1
    81   38   44 1
    82   39   45 1
    83   40   46 1
    84   41   47 1
    85   44   48 1
    86   45   49 1
    87   46   50 1
    88   47   51 1
    89   50   52 1
    90   52   83 1
@<TRIPOS>SUBSTRUCTURE
     1 P450_metal_site        1 TEMP              0 ****  ****    0 ROOT
