@<TRIPOS>MOLECULE
HD2
   17    17     1     0     0
SMALL
USER_CHARGES


@<TRIPOS>ATOM
      1 N       -8.0929   -6.5150   12.4364 N         1 HD2     -0.415700
      2 H       -8.9429   -7.0064   12.6797 H         1 HD2      0.303943
      3 CA      -6.8790   -7.2673   12.6697 CX        1 HD2      0.018800
      4 HA      -6.1507   -6.9821   11.9089 H1        1 HD2      0.088391
      5 CB      -6.3165   -7.0097   14.0804 CT        1 HD2      0.171197
      6 HB2     -7.0607   -7.3541   14.8000 HC        1 HD2      0.051404
      7 HB3     -5.4230   -7.6201   14.2328 HC        1 HD2      0.051404
      8 CG      -6.0119   -5.5758   14.3426 CC        1 HD2     -0.292200
      9 ND1     -4.7572   -5.0244   14.2055 NA        1 HD2     -0.099013
     10 HD1     -3.9210   -5.5182   13.9434 H         1 HD2      0.313713
     11 CE1     -4.8263   -3.7154   14.5111 CR        1 HD2     -0.045178
     12 HE1     -3.9808   -3.0485   14.5046 H5        1 HD2      0.158960
     13 NE2     -6.0562   -3.3895   14.8353 Y2        1 HD2      0.029082
     14 CD2     -6.8062   -4.5412   14.7281 CV        1 HD2     -0.074426
     15 HD2     -7.8644   -4.5491   14.9265 H4        1 HD2      0.105905
     16 C       -7.2873   -8.7402   12.5728 C         1 HD2      0.597300
     17 O       -8.3259   -9.0946   13.1072 O         1 HD2     -0.567900
@<TRIPOS>BOND
     1    1    2 1
     2    1    3 1
     3    3    4 1
     4    3    5 1
     5    3   16 1
     6    5    6 1
     7    5    7 1
     8    5    8 1
     9    8    9 1
    10    8   14 1
    11    9   10 1
    12    9   11 1
    13   11   12 1
    14   11   13 1
    15   13   14 1
    16   14   15 1
    17   16   17 1
@<TRIPOS>SUBSTRUCTURE
     1 HD2         1 TEMP              0 ****  ****    0 ROOT
