@<TRIPOS>MOLECULE
HD2
   17    17     1     0     0
SMALL
USER_CHARGES


@<TRIPOS>ATOM
      1 N       -8.0929   -6.5150   12.4364 N         1 HD2     -0.415700
      2 H       -8.9429   -7.0064   12.6797 H         1 HD2      0.305244
      3 CA      -6.8790   -7.2673   12.6698 CX        1 HD2      0.018800
      4 HA      -6.1506   -6.9821   11.9090 H1        1 HD2      0.083840
      5 CB      -6.3165   -7.0096   14.0804 CT        1 HD2      0.190894
      6 HB2     -7.0607   -7.3540   14.8000 HC        1 HD2      0.043706
      7 HB3     -5.4230   -7.6199   14.2329 HC        1 HD2      0.043706
      8 CG      -6.0120   -5.5757   14.3426 CC        1 HD2     -0.296523
      9 ND1     -4.7572   -5.0243   14.2056 NA        1 HD2     -0.094987
     10 HD1     -3.9210   -5.5181   13.9436 H         1 HD2      0.314363
     11 CE1     -4.8264   -3.7153   14.5112 CR        1 HD2     -0.048265
     12 HE1     -3.9808   -3.0483   14.5048 H5        1 HD2      0.159844
     13 NE2     -6.0563   -3.3894   14.8352 Z2        1 HD2      0.018690
     14 CD2     -6.8063   -4.5411   14.7279 CV        1 HD2     -0.068996
     15 HD2     -7.8645   -4.5488   14.9262 H4        1 HD2      0.104919
     16 C       -7.2873   -8.7402   12.5729 C         1 HD2      0.597300
     17 O       -8.3259   -9.0946   13.1074 O         1 HD2     -0.567900
@<TRIPOS>BOND
     1    1    2 1
     2    1    3 1
     3    3    4 1
     4    3    5 1
     5    3   16 1
     6    5    6 1
     7    5    7 1
     8    5    8 1
     9    8    9 1
    10    8   14 1
    11    9   10 1
    12    9   11 1
    13   11   12 1
    14   11   13 1
    15   13   14 1
    16   14   15 1
    17   16   17 1
@<TRIPOS>SUBSTRUCTURE
     1 HD2         1 TEMP              0 ****  ****    0 ROOT
