@<TRIPOS>MOLECULE
MS1
   30    31     1     0     0
SMALL
USER_CHARGES


@<TRIPOS>ATOM
      1 C1      -5.2051    2.0188   15.6815 ca        1 MS1     -0.043677
      2 C2      -4.5177    1.5846   14.5833 ca        1 MS1     -0.028025
      3 C3      -4.0869    2.5059   13.6084 ca        1 MS1     -0.197043
      4 C4      -4.3468    3.8332   13.7642 ca        1 MS1     -0.203794
      5 C4A     -5.0526    4.3216   14.8931 ca        1 MS1      0.137173
      6 C5      -5.3194    5.7160   15.0545 ca        1 MS1      0.082785
      7 C6      -6.0226    6.1341   16.1492 ca        1 MS1     -0.053546
      8 C7      -6.4842    5.2207   17.1177 ca        1 MS1     -0.172120
      9 C8      -6.2329    3.8868   16.9922 ca        1 MS1     -0.171154
     10 C8A     -5.5051    3.4024   15.8758 ca        1 MS1      0.011416
     11 N       -4.8734    6.6919   14.1141 nh        1 MS1     -0.304213
     12 CM1     -3.4454    6.9626   14.1112 c3        1 MS1     -0.056505
     13 CM2     -5.5531    6.7084   12.8312 c3        1 MS1     -0.086021
     14 S       -5.8145    0.8151   16.8458 sy        1 MS1      0.709789
     15 O1S     -7.2526    0.7419   16.5670 Y4        1 MS1     -0.459576
     16 O2S     -5.3926    1.2034   18.1621 o         1 MS1     -0.436420
     17 N3S     -5.2488   -0.5982   16.4078 Y5        1 MS1     -0.542744
     18 HN31    -4.4146   -0.8560   16.9150 hn        1 MS1      0.285400
     19 HM23    -5.3803    5.8265   12.1986 h1        1 MS1      0.057797
     20 HM22    -6.6305    6.7988   12.9865 h1        1 MS1      0.057797
     21 HM21    -5.2200    7.5847   12.2751 h1        1 MS1      0.057797
     22 HM13    -3.1215    7.2376   15.1169 h1        1 MS1      0.057682
     23 HM12    -2.8151    6.1279   13.7761 h1        1 MS1      0.057682
     24 HM11    -3.2539    7.8112   13.4547 h1        1 MS1      0.057682
     25 H8      -6.5734    3.1992   17.7512 ha        1 MS1      0.162319
     26 H7      -7.0370    5.5811   17.9764 ha        1 MS1      0.147882
     27 H6      -6.2183    7.1912   16.2590 ha        1 MS1      0.100640
     28 H4      -4.0073    4.5296   13.0143 ha        1 MS1      0.190444
     29 H3      -3.5456    2.1571   12.7384 ha        1 MS1      0.141049
     30 H2      -4.3105    0.5306   14.4622 ha        1 MS1      0.070677
@<TRIPOS>BOND
     1    1    2 1
     2    1   10 1
     3    1   14 1
     4    2    3 1
     5    2   30 1
     6    3    4 1
     7    3   29 1
     8    4    5 1
     9    4   28 1
    10    5    6 1
    11    5   10 1
    12    6    7 1
    13    6   11 1
    14    7    8 1
    15    7   27 1
    16    8    9 1
    17    8   26 1
    18    9   10 1
    19    9   25 1
    20   11   12 1
    21   11   13 1
    22   12   22 1
    23   12   23 1
    24   12   24 1
    25   13   19 1
    26   13   20 1
    27   13   21 1
    28   14   15 1
    29   14   16 1
    30   14   17 1
    31   17   18 1
@<TRIPOS>SUBSTRUCTURE
     1 MS1         1 TEMP              0 ****  ****    0 ROOT
