@<TRIPOS>MOLECULE
MS1
   30    31     1     0     0
SMALL
USER_CHARGES


@<TRIPOS>ATOM
      1 C1      -5.2051    2.0188   15.6816 ca        1 MS1     -0.045193
      2 C2      -4.5179    1.5846   14.5833 ca        1 MS1     -0.028143
      3 C3      -4.0871    2.5059   13.6084 ca        1 MS1     -0.198759
      4 C4      -4.3468    3.8333   13.7642 ca        1 MS1     -0.209428
      5 C4A     -5.0526    4.3216   14.8931 ca        1 MS1      0.143918
      6 C5      -5.3194    5.7160   15.0545 ca        1 MS1      0.079751
      7 C6      -6.0226    6.1342   16.1493 ca        1 MS1     -0.053881
      8 C7      -6.4842    5.2207   17.1177 ca        1 MS1     -0.169066
      9 C8      -6.2329    3.8869   16.9922 ca        1 MS1     -0.177385
     10 C8A     -5.5051    3.4025   15.8758 ca        1 MS1      0.008397
     11 N       -4.8734    6.6921   14.1141 nh        1 MS1     -0.303291
     12 CM1     -3.4454    6.9626   14.1112 c3        1 MS1     -0.054314
     13 CM2     -5.5531    6.7083   12.8312 c3        1 MS1     -0.081856
     14 S       -5.8143    0.8150   16.8457 sy        1 MS1      0.725490
     15 O1S     -7.2525    0.7417   16.5669 Z4        1 MS1     -0.468141
     16 O2S     -5.3927    1.2030   18.1621 o         1 MS1     -0.439906
     17 N3S     -5.2486   -0.5982   16.4076 Z5        1 MS1     -0.547345
     18 HN31    -4.4146   -0.8561   16.9151 hn        1 MS1      0.287190
     19 HM23    -5.3803    5.8263   12.1988 h1        1 MS1      0.056606
     20 HM22    -6.6305    6.7990   12.9864 h1        1 MS1      0.056606
     21 HM21    -5.2198    7.5845   12.2749 h1        1 MS1      0.056606
     22 HM13    -3.1216    7.2378   15.1168 h1        1 MS1      0.056768
     23 HM12    -2.8152    6.1277   13.7763 h1        1 MS1      0.056768
     24 HM11    -3.2538    7.8111   13.4545 h1        1 MS1      0.056768
     25 H8      -6.5735    3.1992   17.7511 ha        1 MS1      0.165388
     26 H7      -7.0370    5.5812   17.9764 ha        1 MS1      0.148039
     27 H6      -6.2183    7.1913   16.2591 ha        1 MS1      0.100693
     28 H4      -4.0072    4.5297   13.0144 ha        1 MS1      0.192414
     29 H3      -3.5459    2.1570   12.7383 ha        1 MS1      0.142849
     30 H2      -4.3107    0.5306   14.4623 ha        1 MS1      0.071224
@<TRIPOS>BOND
     1    1    2 1
     2    1   10 1
     3    1   14 1
     4    2    3 1
     5    2   30 1
     6    3    4 1
     7    3   29 1
     8    4    5 1
     9    4   28 1
    10    5    6 1
    11    5   10 1
    12    6    7 1
    13    6   11 1
    14    7    8 1
    15    7   27 1
    16    8    9 1
    17    8   26 1
    18    9   10 1
    19    9   25 1
    20   11   12 1
    21   11   13 1
    22   12   22 1
    23   12   23 1
    24   12   24 1
    25   13   19 1
    26   13   20 1
    27   13   21 1
    28   14   15 1
    29   14   16 1
    30   14   17 1
    31   17   18 1
@<TRIPOS>SUBSTRUCTURE
     1 MS1         1 TEMP              0 ****  ****    0 ROOT
