@<TRIPOS>MOLECULE
ZINC_metal_site
   82    87     1     0     0
SMALL
USER_CHARGES


@<TRIPOS>ATOM
      1 N      -11.1070   -0.3749   11.1178 N         1 HID     -0.415700
      2 H      -11.4037   -0.5129   12.0776 H         1 HID      0.336903
      3 CA     -10.2390   -1.3355   10.4904 CX        1 HID      0.018800
      4 HA     -10.5954   -1.5085    9.4709 H1        1 HID      0.077376
      5 CB      -8.7864   -0.8130   10.3972 CT        1 HID     -0.086924
      6 HB2     -8.1506   -1.5159    9.8577 HC        1 HID      0.077645
      7 HB3     -8.8176    0.1091    9.8157 HC        1 HID      0.077645
      8 CG      -8.2236   -0.5772   11.7535 CC        1 HID     -0.012096
      9 ND1     -8.3772    0.6113   12.4311 NA        1 HID     -0.158585
     10 HD1     -8.8281    1.4378   12.0735 H         1 HID      0.339403
     11 CE1     -7.8785    0.4764   13.6673 CR        1 HID     -0.068232
     12 HE1     -7.8733    1.2441   14.4217 H5        1 HID      0.160318
     13 NE2     -7.4074   -0.7444   13.8289 Y1        1 HID      0.006764
     14 CD2     -7.6124   -1.4117   12.6374 CV        1 HID     -0.164775
     15 HD2     -7.3136   -2.4369   12.4894 H4        1 HID      0.140254
     16 C      -10.2994   -2.6431   11.2667 C         1 HID      0.597300
     17 O      -10.9152   -2.7525   12.3173 O         1 HID     -0.567900
     18 N       -8.0929   -6.5150   12.4364 N         1 HID     -0.415700
     19 H       -8.9429   -7.0064   12.6797 H         1 HID      0.303943
     20 CA      -6.8790   -7.2673   12.6697 CX        1 HID      0.018800
     21 HA      -6.1507   -6.9821   11.9089 H1        1 HID      0.088391
     22 CB      -6.3165   -7.0097   14.0804 CT        1 HID      0.171197
     23 HB2     -7.0607   -7.3541   14.8000 HC        1 HID      0.051404
     24 HB3     -5.4230   -7.6201   14.2328 HC        1 HID      0.051404
     25 CG      -6.0119   -5.5758   14.3426 CC        1 HID     -0.292200
     26 ND1     -4.7572   -5.0244   14.2055 NA        1 HID     -0.099013
     27 HD1     -3.9210   -5.5182   13.9434 H         1 HID      0.313713
     28 CE1     -4.8263   -3.7154   14.5111 CR        1 HID     -0.045178
     29 HE1     -3.9808   -3.0485   14.5046 H5        1 HID      0.158960
     30 NE2     -6.0562   -3.3895   14.8353 Y2        1 HID      0.029082
     31 CD2     -6.8062   -4.5412   14.7281 CV        1 HID     -0.074426
     32 HD2     -7.8644   -4.5491   14.9265 H4        1 HID      0.105905
     33 C       -7.2873   -8.7402   12.5728 C         1 HID      0.597300
     34 O       -8.3259   -9.0946   13.1072 O         1 HID     -0.567900
     35 N      -11.9886   -2.5458   14.9908 N         1 HIE     -0.415700
     36 H      -11.6975   -2.5323   14.0209 H         1 HIE      0.287017
     37 CA     -11.7101   -1.3721   15.7877 CX        1 HIE     -0.058100
     38 HA     -12.1865   -1.5266   16.7564 H1        1 HIE      0.123993
     39 CB     -10.2056   -1.1464   15.9396 CT        1 HIE      0.055606
     40 HB2     -9.7707   -1.1362   14.9378 HC        1 HIE      0.056091
     41 HB3    -10.0138   -0.1585   16.3708 HC        1 HIE      0.056091
     42 CG      -9.5442   -2.1926   16.7744 CC        1 HIE     -0.086928
     43 ND1     -8.1735   -2.3762   16.7579 Y3        1 HIE      0.098810
     44 CE1     -7.8993   -3.3215   17.6329 CR        1 HIE     -0.065120
     45 HE1     -6.9170   -3.6937   17.8748 H5        1 HIE      0.153208
     46 NE2     -9.0283   -3.7665   18.2004 NA        1 HIE     -0.175097
     47 HE2     -9.0884   -4.4706   18.9156 H         1 HIE      0.336152
     48 CD2    -10.0859   -3.0668   17.6670 CW        1 HIE     -0.123252
     49 HD2    -11.1105   -3.2721   17.9266 H4        1 HIE      0.172676
     50 C      -12.3115   -0.1577   15.0870 C         1 HIE      0.597300
     51 O      -11.9140    0.1804   13.9758 O         1 HIE     -0.567900
     52 ZN      -6.7421   -1.5456   15.5613 M1        1 ZN       0.170101
     53 C1      -5.2051    2.0188   15.6815 ca        1 MNS     -0.043677
     54 C2      -4.5177    1.5846   14.5833 ca        1 MNS     -0.028025
     55 C3      -4.0869    2.5059   13.6084 ca        1 MNS     -0.197043
     56 C4      -4.3468    3.8332   13.7642 ca        1 MNS     -0.203794
     57 C4A     -5.0526    4.3216   14.8931 ca        1 MNS      0.137173
     58 C5      -5.3194    5.7160   15.0545 ca        1 MNS      0.082785
     59 C6      -6.0226    6.1341   16.1492 ca        1 MNS     -0.053546
     60 C7      -6.4842    5.2207   17.1177 ca        1 MNS     -0.172120
     61 C8      -6.2329    3.8868   16.9922 ca        1 MNS     -0.171154
     62 C8A     -5.5051    3.4024   15.8758 ca        1 MNS      0.011416
     63 N       -4.8734    6.6919   14.1141 nh        1 MNS     -0.304213
     64 CM1     -3.4454    6.9626   14.1112 c3        1 MNS     -0.056505
     65 CM2     -5.5531    6.7084   12.8312 c3        1 MNS     -0.086021
     66 S       -5.8145    0.8151   16.8458 sy        1 MNS      0.709789
     67 O1S     -7.2526    0.7419   16.5670 Y4        1 MNS     -0.459576
     68 O2S     -5.3926    1.2034   18.1621 o         1 MNS     -0.436420
     69 N3S     -5.2488   -0.5982   16.4078 Y5        1 MNS     -0.542744
     70 HN31    -4.4146   -0.8560   16.9150 hn        1 MNS      0.285400
     71 HM23    -5.3803    5.8265   12.1986 h1        1 MNS      0.057797
     72 HM22    -6.6305    6.7988   12.9865 h1        1 MNS      0.057797
     73 HM21    -5.2200    7.5847   12.2751 h1        1 MNS      0.057797
     74 HM13    -3.1215    7.2376   15.1169 h1        1 MNS      0.057682
     75 HM12    -2.8151    6.1279   13.7761 h1        1 MNS      0.057682
     76 HM11    -3.2539    7.8112   13.4547 h1        1 MNS      0.057682
     77 H8      -6.5734    3.1992   17.7512 ha        1 MNS      0.162319
     78 H7      -7.0370    5.5811   17.9764 ha        1 MNS      0.147882
     79 H6      -6.2183    7.1912   16.2590 ha        1 MNS      0.100640
     80 H4      -4.0073    4.5296   13.0143 ha        1 MNS      0.190444
     81 H3      -3.5456    2.1571   12.7384 ha        1 MNS      0.141049
     82 H2      -4.3105    0.5306   14.4622 ha        1 MNS      0.070677
@<TRIPOS>BOND
     1    1    2 1
     2    1    3 1
     3    3    4 1
     4    3    5 1
     5    3   16 1
     6    5    6 1
     7    5    7 1
     8    5    8 1
     9    8    9 1
    10    8   14 1
    11    9   10 1
    12    9   11 1
    13   11   12 1
    14   11   13 1
    15   13   14 1
    16   13   52 1
    17   14   15 1
    18   16   17 1
    19   18   19 1
    20   18   20 1
    21   20   21 1
    22   20   22 1
    23   20   33 1
    24   22   23 1
    25   22   24 1
    26   22   25 1
    27   25   26 1
    28   25   31 1
    29   26   27 1
    30   26   28 1
    31   28   29 1
    32   28   30 1
    33   30   31 1
    34   30   52 1
    35   31   32 1
    36   33   34 1
    37   35   36 1
    38   35   37 1
    39   37   38 1
    40   37   39 1
    41   37   50 1
    42   39   40 1
    43   39   41 1
    44   39   42 1
    45   42   43 1
    46   42   48 1
    47   43   44 1
    48   43   52 1
    49   44   45 1
    50   44   46 1
    51   46   47 1
    52   46   48 1
    53   48   49 1
    54   50   51 1
    55   52   67 1
    56   52   69 1
    57   53   54 1
    58   53   62 1
    59   53   66 1
    60   54   55 1
    61   54   82 1
    62   55   56 1
    63   55   81 1
    64   56   57 1
    65   56   80 1
    66   57   58 1
    67   57   62 1
    68   58   59 1
    69   58   63 1
    70   59   60 1
    71   59   79 1
    72   60   61 1
    73   60   78 1
    74   61   62 1
    75   61   77 1
    76   63   64 1
    77   63   65 1
    78   64   74 1
    79   64   75 1
    80   64   76 1
    81   65   71 1
    82   65   72 1
    83   65   73 1
    84   66   67 1
    85   66   68 1
    86   66   69 1
    87   69   70 1
@<TRIPOS>SUBSTRUCTURE
     1 ZINC_metal_site        1 TEMP              0 ****  ****    0 ROOT
