@<TRIPOS>MOLECULE
TOLUENE
   15    15     1     0     0
SMALL
abcg2


@<TRIPOS>ATOM
      1 C7           0.000968     1.504979     -0.000009 Z0         1 TOL      -0.05380000
      2 C1           0.002847     0.003001     -0.000051 Z1         1 TOL      -0.07730000
      3 C2           1.196730    -0.706762     0.000017 Z2         1 TOL      -0.11300000
      4 C3           1.199043    -2.094221     0.000022 Z3         1 TOL      -0.10850000
      5 C4           0.000687    -2.789553     -0.000008 Z4         1 TOL      -0.11700000
      6 C5          -1.199230    -2.090550     0.000006 Z5         1 TOL      -0.10850000
      7 C6          -1.195918    -0.705908     -0.000036 Z6         1 TOL      -0.11300000
      8 H71          1.017554     1.894170     0.000013 Z7         1 TOL       0.04336700
      9 H72         -0.511668     1.893778     0.880506 Z8         1 TOL       0.04336700
     10 H73         -0.511651     1.893818    -0.880501 Z9         1 TOL       0.04336700
     11 H2           2.134206    -0.163494     0.000016 ZA         1 TOL       0.11200000
     12 H3           2.138844    -2.630739     -0.000015 ZB         1 TOL       0.11200000
     13 H4           -0.000160    -3.870457     -0.000009 ZC         1 TOL       0.11200000
     14 H5          -2.138360    -2.628667     0.000037 ZD         1 TOL       0.11200000
     15 H6          -2.133992    -0.162692     0.000014 ZE         1 TOL       0.11200000
@<TRIPOS>BOND
     1     1     2 1   
     2     1     8 1   
     3     1     9 1   
     4     1    10 1   
     5     2     3 ar  
     6     3     4 ar  
     7     4     5 ar  
     8     5     6 ar  
     9     6     7 ar  
    10     7     2 ar  
    11     3    11 1   
    12     4    12 1   
    13     5    13 1   
    14     6    14 1   
    15     7    15 1   
@<TRIPOS>SUBSTRUCTURE
     1 TOL         1 TEMP              0 ****  ****    0 ROOT
