@<TRIPOS>MOLECULE
TOLUENE
   15    15     1     0     0
SMALL
abcg2


@<TRIPOS>ATOM
      1 C7           0.000958     1.504976     -0.000007 Z0         1 TOL      -0.05380000
      2 C1           0.002840     0.003001     -0.000043 Z1         1 TOL      -0.07730000
      3 C2           1.196726    -0.706755     0.000018 Z2         1 TOL      -0.11300000
      4 C3           1.199046    -2.094218     0.000021 Z3         1 TOL      -0.10850000
      5 C4           0.000706    -2.789558     -0.000017 Z4         1 TOL      -0.11700000
      6 C5          -1.199216    -2.090561     0.000003 Z5         1 TOL      -0.10850000
      7 C6          -1.195928    -0.705916     -0.000033 Z6         1 TOL      -0.11300000
      8 H71          1.017552     1.894173     0.000013 Z7         1 TOL       0.04336700
      9 H72         -0.511669     1.893781     0.880506 Z8         1 TOL       0.04336700
     10 H73         -0.511652     1.893820    -0.880501 Z9         1 TOL       0.04336700
     11 H2           2.134193    -0.163493     0.000017 ZA         1 TOL       0.11200000
     12 H3           2.138857    -2.630737     -0.000016 ZB         1 TOL       0.11200000
     13 H4           -0.000161    -3.870466     -0.000010 ZC         1 TOL       0.11200000
     14 H5          -2.138363    -2.628661     0.000037 ZD         1 TOL       0.11200000
     15 H6          -2.133988    -0.162687     0.000014 ZE         1 TOL       0.11200000
@<TRIPOS>BOND
     1     1     2 1   
     2     1     8 1   
     3     1     9 1   
     4     1    10 1   
     5     2     3 ar  
     6     3     4 ar  
     7     4     5 ar  
     8     5     6 ar  
     9     6     7 ar  
    10     7     2 ar  
    11     3    11 1   
    12     4    12 1   
    13     5    13 1   
    14     6    14 1   
    15     7    15 1   
@<TRIPOS>SUBSTRUCTURE
     1 TOL         1 TEMP              0 ****  ****    0 ROOT
